
     RDKit          3D

 47 46  0  0  0  0  0  0  0  0999 V2000
    4.6688    1.2418    1.1750 C   0  0  0  0  0  0  0  0  0  0  0  0
    3.8981    0.8487   -0.0753 C   0  0  0  0  0  0  0  0  0  0  0  0
    3.5010   -0.6278   -0.0476 C   0  0  0  0  0  0  0  0  0  0  0  0
    2.7217   -1.0151   -1.3059 C   0  0  0  0  0  0  0  0  0  0  0  0
    2.3947   -2.5094   -1.3859 C   0  0  0  0  0  0  0  0  0  0  0  0
    1.5530   -3.0720   -0.2362 C   0  0  0  0  0  0  0  0  0  0  0  0
    0.1905   -2.3906   -0.0882 C   0  0  0  0  0  0  0  0  0  0  0  0
   -0.6538   -3.0734    0.9913 C   0  0  0  0  0  0  0  0  0  0  0  0
   -1.9760   -2.3524    1.2726 C   0  0  0  0  0  0  0  0  0  0  0  0
   -2.9402   -2.3711    0.0841 C   0  0  0  0  0  0  0  0  0  0  0  0
   -4.3314   -1.8255    0.4235 C   0  0  0  0  0  0  0  0  0  0  0  0
   -4.3749   -0.3801    0.9293 C   0  0  0  0  0  0  0  0  0  0  0  0
   -3.8038    0.6319   -0.0660 C   0  0  0  0  0  0  0  0  0  0  0  0
   -3.9775    2.0646    0.4399 C   0  0  0  0  0  0  0  0  0  0  0  0
   -3.4055    3.0749   -0.5417 C   0  0  0  0  0  0  0  0  0  0  0  0
    5.5886    0.6559    1.2692 H   0  0  0  0  0  0  0  0  0  0  0  0
    4.9430    2.3005    1.1340 H   0  0  0  0  0  0  0  0  0  0  0  0
    4.0654    1.0818    2.0743 H   0  0  0  0  0  0  0  0  0  0  0  0
    4.5167    1.0521   -0.9572 H   0  0  0  0  0  0  0  0  0  0  0  0
    3.0012    1.4738   -0.1564 H   0  0  0  0  0  0  0  0  0  0  0  0
    2.8931   -0.8174    0.8441 H   0  0  0  0  0  0  0  0  0  0  0  0
    4.4012   -1.2490    0.0333 H   0  0  0  0  0  0  0  0  0  0  0  0
    3.3157   -0.7516   -2.1903 H   0  0  0  0  0  0  0  0  0  0  0  0
    1.8004   -0.4246   -1.3697 H   0  0  0  0  0  0  0  0  0  0  0  0
    1.8721   -2.6982   -2.3320 H   0  0  0  0  0  0  0  0  0  0  0  0
    3.3334   -3.0752   -1.4358 H   0  0  0  0  0  0  0  0  0  0  0  0
    1.3997   -4.1427   -0.4218 H   0  0  0  0  0  0  0  0  0  0  0  0
    2.1091   -3.0012    0.7056 H   0  0  0  0  0  0  0  0  0  0  0  0
   -0.3326   -2.4230   -1.0502 H   0  0  0  0  0  0  0  0  0  0  0  0
    0.3256   -1.3362    0.1771 H   0  0  0  0  0  0  0  0  0  0  0  0
   -0.8549   -4.1125    0.7035 H   0  0  0  0  0  0  0  0  0  0  0  0
   -0.0796   -3.1100    1.9255 H   0  0  0  0  0  0  0  0  0  0  0  0
   -2.4557   -2.8387    2.1309 H   0  0  0  0  0  0  0  0  0  0  0  0
   -1.7624   -1.3196    1.5708 H   0  0  0  0  0  0  0  0  0  0  0  0
   -3.0573   -3.4042   -0.2664 H   0  0  0  0  0  0  0  0  0  0  0  0
   -2.5214   -1.8066   -0.7555 H   0  0  0  0  0  0  0  0  0  0  0  0
   -4.9622   -1.9070   -0.4706 H   0  0  0  0  0  0  0  0  0  0  0  0
   -4.7902   -2.4715    1.1825 H   0  0  0  0  0  0  0  0  0  0  0  0
   -5.4220   -0.1262    1.1374 H   0  0  0  0  0  0  0  0  0  0  0  0
   -3.8450   -0.3007    1.8856 H   0  0  0  0  0  0  0  0  0  0  0  0
   -2.7376    0.4381   -0.2291 H   0  0  0  0  0  0  0  0  0  0  0  0
   -4.3072    0.5205   -1.0339 H   0  0  0  0  0  0  0  0  0  0  0  0
   -3.4768    2.1806    1.4082 H   0  0  0  0  0  0  0  0  0  0  0  0
   -5.0412    2.2784    0.5966 H   0  0  0  0  0  0  0  0  0  0  0  0
   -3.9070    3.0061   -1.5123 H   0  0  0  0  0  0  0  0  0  0  0  0
   -3.5408    4.0920   -0.1608 H   0  0  0  0  0  0  0  0  0  0  0  0
   -2.3344    2.9095   -0.6955 H   0  0  0  0  0  0  0  0  0  0  0  0
  1  2  1  0
  2  3  1  0
  3  4  1  0
  4  5  1  0
  5  6  1  0
  6  7  1  0
  7  8  1  0
  8  9  1  0
  9 10  1  0
 10 11  1  0
 11 12  1  0
 12 13  1  0
 13 14  1  0
 14 15  1  0
  1 16  1  0
  1 17  1  0
  1 18  1  0
  2 19  1  0
  2 20  1  0
  3 21  1  0
  3 22  1  0
  4 23  1  0
  4 24  1  0
  5 25  1  0
  5 26  1  0
  6 27  1  0
  6 28  1  0
  7 29  1  0
  7 30  1  0
  8 31  1  0
  8 32  1  0
  9 33  1  0
  9 34  1  0
 10 35  1  0
 10 36  1  0
 11 37  1  0
 11 38  1  0
 12 39  1  0
 12 40  1  0
 13 41  1  0
 13 42  1  0
 14 43  1  0
 14 44  1  0
 15 45  1  0
 15 46  1  0
 15 47  1  0
M  END
